******************Boolean************************
.include "C:\Users\Zenger Soong\Documents\50002(JSIM)\nominal.jsim"
.include "C:\Users\Zenger Soong\Documents\50002(JSIM)\stdcell.jsim"
.include "C:\Users\Zenger Soong\Documents\50002(JSIM)\lab3boolean.jsim"



.subckt boole32 ALUFN[3:0] a[31:0] b[31:0] boole[31:0]

Xbool A[31:0] B[31:0] ALUFN[0]#32 ALUFN[1]#32 ALUFN[2]#32 ALUFN[3]#32 boole[31:0] mux4
.ends